*MODEL INPUT FILE            B    20     1     1   999     0
*FILES              
MODEL          CSYCA048
FILEX          UYZA1901.CSX                                                                                 
FILEA          UYZA1901.CSA                                                                                 
FILET          UYZA1901.CST                                                                                 
SPECIES        CSYCA048.SPE                                                                                 
ECOTYPE        CSYCA048.ECO                                                                                 
CULTIVAR       CSYCA048.CUL                                                                                 
PESTS          CSYCA048.PST ///usr/local/Pest/                                                              
SOILS          SOIL.SOL                                                                                     
WEATHERW       UYZA1704.WTH                                                                                 
OUTPUT         OVERVIEW
*SIMULATION CONTROL 
                   1     1     S 2019173  2150 Cultivars                
                   Y     N     N     N     N     N     N     Y     M
                   M     M     E     R     S     R     R     1     G     S     2     D     0
                   R     N     N     N     R
                   N     Y     Y     1     Y     N     Y     N     N     N     Y     N     Y
!AUTOMATIC MANAGEM  
                   -99     -99   40.  100.   30.   40.   10.
                 30.   50.  100. GS000 IR001  10.0 1.000
                 30.   50.   25. FE001 GS000
                100.     1   20.
                     0     -99  100.    0.
*EXP.DETAILS        
  1UYZA1901 CS UYT_GXE                                                     
*TREATMENTS         
  1 1 1 0 IITA-TMS-IBA000070       
*CULTIVARS          
   CS UC0020 IITA-TMS-IBA0000
*FIELDS             
   UYZA1901 UYZA1704   0.0  -99.   -99  -99. 100.0   -99 SL     200. NG04088975
      0.0000000000    0.0000000000     0.000               1.0  100.   1.0 -99.0   -99   -99
*INITIAL CONDITIONS 
   99    2019174   -99   -99  1.00  1.00 -99.0     0 -9.00 -9.00  100.   50.
      5. 0.193 0.100 0.800
     15. 0.205 0.100 0.800
     30. 0.221 0.100 0.800
     45. 0.235 0.100 0.800
     60. 0.235 0.100 0.800
     80. 0.235 0.100 0.800
    100. 0.235 0.100 0.800
    150. 0.223 0.100 0.800
    200. 0.223 0.100 0.800
*PLANTING DETAILS   
   2019174     -99   1.0   1.0     V     R  100.   90.  20.0  450.  -99. -99.0   1.0  25.0
*IRRIGATION         
   1.000    0.    0.    0. GS000 IR001   0.0
*FERTILIZERS        
*RESIDUES           
*CHEMICALS          
*TILLAGE            
*ENVIRONMENT        
*HARVEST            
   2020216 GS000     H     A  100.    0.
*SOIL               
 NG04088975  NGA         SL     200.  ISRIC soilgrids + HC27                           
 -99         NG           11.150   7.983 HC_GEN0011                                        
 BK     0.10   6.0  0.50   75.  1.00  1.00 SA001 SA001 SA001 -99  
    5.       0.140 0.245 0.393 1.000 0.820  1.24 1.420  23.4  23.9 -99.0 0.120  6.10-99.00 12.20-99.00
   15.       0.152 0.258 0.396 0.850 0.670  1.26 1.200  25.3  23.0 -99.0 0.090  6.16-99.00 10.70-99.00
   30.       0.167 0.276 0.401 0.700 0.500  1.29 0.920  27.9  22.0 -99.0 0.070  6.26-99.00 10.40-99.00
   45.       0.181 0.290 0.405 0.500 0.380  1.34 0.590  30.1  20.9 -99.0 0.060  6.38-99.00 10.80-99.00
   60.       0.181 0.290 0.405 0.500 0.380  1.34 0.590  30.1  20.9 -99.0 0.060  6.38-99.00 10.80-99.00
   80.       0.180 0.289 0.404 0.380 0.390  1.40 0.330  30.1  20.1 -99.0 0.050  6.52-99.00 10.90-99.00
  100.       0.180 0.289 0.404 0.380 0.390  1.40 0.330  30.1  20.1 -99.0 0.050  6.52-99.00 10.90-99.00
  150.       0.170 0.275 0.400 0.050 0.490  1.46 0.200  28.3  19.9 -99.0 0.050  6.70-99.00 10.90-99.00
  200.       0.170 0.275 0.400 0.050 0.490  1.46 0.200  28.3  19.9 -99.0 0.050  6.70-99.00 10.90-99.00
                    
    5.-99.00 -99.0 -99.0 -99.0 -99.0 -99.0 -99.0 -99.0 -99.0 -99.0-99.00 -99.0 -99.0 -99.0 -99.0 -99.0  -99.
   15.-99.00 -99.0 -99.0 -99.0 -99.0 -99.0 -99.0 -99.0 -99.0 -99.0-99.00 -99.0 -99.0 -99.0 -99.0 -99.0  -99.
   30.-99.00 -99.0 -99.0 -99.0 -99.0 -99.0 -99.0 -99.0 -99.0 -99.0-99.00 -99.0 -99.0 -99.0 -99.0 -99.0  -99.
   45.-99.00 -99.0 -99.0 -99.0 -99.0 -99.0 -99.0 -99.0 -99.0 -99.0-99.00 -99.0 -99.0 -99.0 -99.0 -99.0  -99.
   60.-99.00 -99.0 -99.0 -99.0 -99.0 -99.0 -99.0 -99.0 -99.0 -99.0-99.00 -99.0 -99.0 -99.0 -99.0 -99.0  -99.
   80.-99.00 -99.0 -99.0 -99.0 -99.0 -99.0 -99.0 -99.0 -99.0 -99.0-99.00 -99.0 -99.0 -99.0 -99.0 -99.0  -99.
  100.-99.00 -99.0 -99.0 -99.0 -99.0 -99.0 -99.0 -99.0 -99.0 -99.0-99.00 -99.0 -99.0 -99.0 -99.0 -99.0  -99.
  150.-99.00 -99.0 -99.0 -99.0 -99.0 -99.0 -99.0 -99.0 -99.0 -99.0-99.00 -99.0 -99.0 -99.0 -99.0 -99.0  -99.
  200.-99.00 -99.0 -99.0 -99.0 -99.0 -99.0 -99.0 -99.0 -99.0 -99.0-99.00 -99.0 -99.0 -99.0 -99.0 -99.0  -99.
                    
    5.-99.00-99.00-99.00-99.00
   15.-99.00-99.00-99.00-99.00
   30.-99.00-99.00-99.00-99.00
   45.-99.00-99.00-99.00-99.00
   60.-99.00-99.00-99.00-99.00
   80.-99.00-99.00-99.00-99.00
  100.-99.00-99.00-99.00-99.00
  150.-99.00-99.00-99.00-99.00
  200.-99.00-99.00-99.00-99.00
*CULTIVAR           
